/*--------------------------------*- C++ -*----------------------------------*\
| =========                 |                                                 |
| \\      /  F ield         | OpenFOAM: The Open Source CFD Toolbox           |
|  \\    /   O peration     | Version:  dev                                   |
|   \\  /    A nd           | Web:      www.OpenFOAM.org                      |
|    \\/     M anipulation  |                                                 |
\*---------------------------------------------------------------------------*/
FoamFile
{
    version     2.0;
    format      ascii;
    class       dictionary;
    location    "system";
    object      fvSolution;
}
// * * * * * * * * * * * * * * * * * * * * * * * * * * * * * * * * * * * * * //

solvers
{
    p
    {
        solver          PCG;
        preconditioner  DIC;
        tolerance       1e-10;
        relTol          0.01;
    }

    pFinal
    {
        $p;
        relTol          0;
    }

    "(U|k|epsilon|omega|R|nuTilda)"
    {
        solver          PBiCG;
        preconditioner  DILU;
        tolerance       1e-10;
        relTol          0.1;
    }

    UFinal
    {
        $U;
        relTol          0;
    }
}

PIMPLE
{
    nCorrectors     2;
    nOuterCorrectors     200;
    nNonOrthogonalCorrectors 1;
    pRefCell        0;
    pRefValue       0;
    residualControl
    {
        p
        {
                tolerance  5e-5;
                relTol     0;
        }
        U
        {
                tolerance  1e-4;
                relTol     0;
        }
    }

}

relaxationFactors
{
    fields
    {
        p      0.4;
        pFinal   1;
    }
    equations
    {
        "U|k|epsilon"     0.6;
        "(U|k|epsilon)Final"   1;
    }
}

// ************************************************************************* //
